LAMMPS (30 Jul 2021)
# This LAMMPS input script simulates the formation of amorphous carbon structure
# Tested with the 30Jul2021 version of LAMMPS
# Writen by Simon Gravelle
# https://simongravelle.github.io/
# Find more script here:
# https://github.com/simongravelle/lammps-input-files
# https://lammpstutorials.github.io/

units		metal
atom_style	full
boundary	p p p
pair_style  	airebo 2.5 1 1

region		block block -20 20 -20 20 -20 20
create_box	1 block
Created orthogonal box = (-20.000000 -20.000000 -20.000000) to (20.000000 20.000000 20.000000)
create_atoms 	1 random 5000 45287 block
Created 5000 atoms

mass 		1 12.0107
pair_coeff	* * ../CH.airebo C
Reading airebo potential file ../CH.airebo with DATE: 2011-10-25

thermo		10
minimize 	1.0e-4 1.0e-6 100 1000
  update every 1 steps, delay 0 steps, check yes
Step Temp E_pair E_mol TotEng Press
0            0    362034.54            0    362034.54     13444621
Loop time of 1.6995 on 10 procs for 100 steps with 5000 atoms

Minimization stats:
  Stopping criterion = max iterations
  Energy initial, next-to-last, final =
  Force two-norm initial, final = 548624.94 104.54047
  Force max component initial, final = 195703.31 39.527489
  Final line search alpha, max atom move = 0.0044098950 0.17431208
  Iterations, force evaluations = 100 107

reset_timestep	0

velocity 	all create 10000 49284 dist gaussian
fix		mynvt all nvt temp 10000 4000 0.1

dump 		dp1 all atom 10000 dump.lammpstrj

timestep	0.0005
thermo		1000
run		10000
Step Temp E_pair E_mol TotEng Press
0        10000   -24074.872            0   -17613.157    151746.97
Averages over the last 6 of 11 rows, steps 5000 to 10000:
Temp E_pair E_mol TotEng Press
5683.67 -28992.5 0 -25319.9 -1191.17
Loop time of 147.916 on 10 procs for 10000 steps with 5000 atoms

fix		mynvt all nvt temp 4000 4000 0.1
run		50000
Step Temp E_pair E_mol TotEng Press
10000    4229.8356   -30702.817            0   -27969.618   -19937.608
Averages over the last 26 of 51 rows, steps 35000 to 60000:
Temp E_pair E_mol TotEng Press
4000.97 -31668 0 -29082.7 -37155.9
Loop time of 629.736 on 10 procs for 50000 steps with 5000 atoms

fix		mynvt all nvt temp 4000 3000 0.1
run		50000
Step Temp E_pair E_mol TotEng Press
60000    4002.2714   -31794.094            0    -29207.94   -31425.092
Averages over the last 26 of 51 rows, steps 85000 to 110000:
Temp E_pair E_mol TotEng Press
3249.37 -32570.5 0 -30470.8 -42279.2
Loop time of 632.81 on 10 procs for 50000 steps with 5000 atoms

fix		mynvt all nvt temp 3000 300 0.1
run		10000
Step Temp E_pair E_mol TotEng Press
110000    2939.7602   -32842.616            0   -30943.027   -45131.703
Averages over the last 6 of 11 rows, steps 115000 to 120000:
Temp E_pair E_mol TotEng Press
1062.9 -34181.6 0 -33494.8 -73373
Loop time of 113.776 on 10 procs for 10000 steps with 5000 atoms

fix		mynvt all nvt temp 300 300 0.1
run		1000
Step Temp E_pair E_mol TotEng Press
120000    415.99237   -34619.681            0   -34350.878    -84836.75
Loop time of 10.5506 on 10 procs for 1000 steps with 5000 atoms

write_data	data.lammps
System init for write_data ...
